*SPEF "ieee 1481-1999"
*DESIGN "aes_cipher_top"
*DATE "11:11:11 Fri 11 11, 1111"
*VENDOR "OpenRCX"
*PROGRAM "Parallel Extraction"
*VERSION "1.0"
*DESIGN_FLOW "NAME_SCOPE LOCAL" "PIN_CAP NONE"
*DIVIDER /
*DELIMITER :
*BUS_DELIMITER []
*T_UNIT 1 NS
*C_UNIT 1 PF
*R_UNIT 1 OHM
*L_UNIT 1 HENRY

*NAME_MAP
*3 key[0]
*37 key[15]
*48 key[25]
*54 key[30]
*88 key[61]
*92 key[65]
*97 key[6]
*99 key[71]
*120 key[90]
*154 text_in[119]
*173 text_in[20]
*186 text_in[32]
*192 text_in[38]
*193 text_in[39]
*200 text_in[45]
*216 text_in[5]
*243 text_in[84]
*252 text_in[92]
*379 text_out[91]
*400 _00009_
*501 _00110_
*521 _00130_
*535 _00144_
*544 _00153_
*570 _00179_
*591 _00200_
*647 _00256_
*671 _00280_
*756 _00365_
*765 _00374_
*1197 _00806_
*1245 _00854_
*1246 _00855_
*1278 _00887_
*1285 _00894_
*1292 _00901_
*2120 _01729_
*2695 _02304_
*2708 _02317_
*2720 _02329_
*2989 _02598_
*3189 _02798_
*3269 _02878_
*3285 _02894_
*3286 _02895_
*3287 _02896_
*3289 _02898_
*3291 _02900_
*3307 _02916_
*3310 _02919_
*3311 _02920_
*3312 _02921_
*3313 _02922_
*3383 _02992_
*3426 _03035_
*3563 _03172_
*3619 _03228_
*3626 _03235_
*3633 _03242_
*3655 _03264_
*3664 _03273_
*3678 _03287_
*3705 _03314_
*3727 _03336_
*3732 _03341_
*3747 _03356_
*3771 _03380_
*4160 _03769_
*4162 _03771_
*4218 _03827_
*4508 _04117_
*4510 _04119_
*4516 _04125_
*4601 _04210_
*5244 _04853_
*5472 _05081_
*5602 _05211_
*5897 _05506_
*6233 _05842_
*6243 _05852_
*6259 _05868_
*6281 _05890_
*6301 _05910_
*6344 _05953_
*6387 _05996_
*6403 _06012_
*6416 _06025_
*6427 _06036_
*6450 _06059_
*6460 _06069_
*6476 _06085_
*6485 _06094_
*6499 _06108_
*6518 _06127_
*6632 _06241_
*6667 _06276_
*6718 _06327_
*6720 _06329_
*6724 _06333_
*6881 _06490_
*7030 _06639_
*7053 _06662_
*7059 _06668_
*7074 _06683_
*7145 _06754_
*7183 _06792_
*7223 _06832_
*7244 _06853_
*7397 _07006_
*7522 _07131_
*7890 _07499_
*7893 _07502_
*7897 _07506_
*7904 _07513_
*7990 _07599_
*7995 _07604_
*7997 _07606_
*7998 _07607_
*8138 _07747_
*8142 _07751_
*8315 _07924_
*8373 _07982_
*8382 _07991_
*8386 _07995_
*8388 _07997_
*8392 _08001_
*8487 _08096_
*8670 _08279_
*8849 _08458_
*8850 _08459_
*8854 _08463_
*8900 _08509_
*8942 _08551_
*8950 _08559_
*8951 _08560_
*8996 _08605_
*8997 _08606_
*9035 _08644_
*9060 _08669_
*9138 _08747_
*9658 _09267_
*9663 _09272_
*9665 _09274_
*9666 _09275_
*9671 _09280_
*9674 _09283_
*9675 _09284_
*9684 _09293_
*9694 _09303_
*9703 _09312_
*9708 _09317_
*9712 _09321_
*9721 _09330_
*9744 _09353_
*9754 _09363_
*9793 _09402_
*9802 _09411_
*9803 _09412_
*9823 _09432_
*9829 _09438_
*9839 _09448_
*9890 _09499_
*9895 _09504_
*9904 _09513_
*10018 _09627_
*10099 _09708_
*10102 _09711_
*10149 _09758_
*10160 _09769_
*10165 _09774_
*10170 _09779_
*10172 _09781_
*10330 _09939_
*10397 _10006_
*10400 _10009_
*10406 _10015_
*10761 _10370_
*10779 _10388_
*11018 _10627_
*11044 _10653_
*11047 _10656_
*11212 _10821_
*11411 _11020_
*11417 _11026_
*11562 _11171_
*11633 _11242_
*11634 _11243_
*11635 _11244_
*11932 _11541_
*11961 _11570_
*11974 _11583_
*12001 _11610_
*12039 _11648_
*12090 _11699_
*12137 _11746_
*12405 _12014_
*12463 _12072_
*12468 _12077_
*12473 _12082_
*12501 _12110_
*12523 _12132_
*12560 _12169_
*12564 _12173_
*12594 _12203_
*12606 _12215_
*12607 _12216_
*12734 _12343_
*12767 _12376_
*13218 _12827_
*13223 _12832_
*13324 _12933_
*13600 _13209_
*13763 _13372_
*13856 _13465_
*13858 _13467_
*13957 _13566_
*14154 _13763_
*14655 sa03_next\[6\]
*14829 sa32_next\[4\]
*14982 u0.r0.out\[29\]
*15138 clknet_1_0_2_clk
*15224 clknet_5_2_0_clk
*15258 clknet_6_4_0_clk
*15276 clknet_6_22_0_clk
*15281 clknet_6_27_0_clk
*15284 clknet_6_30_0_clk
*15292 clknet_6_38_0_clk
*15300 clknet_6_46_0_clk
*15436 _14332_
*15449 _14345_
*15535 _14431_
*15567 _14463_
*15578 _14474_
*15918 _14814_
*18077 _16973_
*18503 _17399_
*18650 _17546_
*29629 _28525_
*29665 _28561_
*30057 _28953_
*30062 _28958_

*PORTS
key[0] I
key[25] I
key[65] I
text_in[39] I
text_in[45] I
text_in[84] I
text_out[84] O
text_out[91] O

*D_NET *3 0.0712033
*CONN
*P key[0] I
*I *15918:B I *D sky130_fd_sc_hs__nand2_4
*CAP
1 key[0] 0.015306
2 *15918:B 3.80399e-05
3 *3:15 0.00677526
4 *3:13 0.00675214
5 *3:11 0.000538472
6 *3:8 0.000760015
7 *3:5 0.0155425
8 *3:5 text_out[84] 0.000541205
9 *3:5 *54:5 0.00578949
10 *3:5 *97:11 0.000546359
11 *3:5 *3286:56 8.75337e-06
12 *3:5 *3286:58 0.000179786
13 *3:5 *3311:48 5.96176e-07
14 *3:5 *12405:105 0.000110797
15 *3:5 *12405:114 0.000106815
16 *3:5 *12463:26 1.43045e-05
17 *3:5 *12463:28 0.00152104
18 *3:5 *12468:81 5.15713e-05
19 *3:5 *12468:83 0.00194764
20 *3:5 *12473:8 2.66702e-05
21 *3:5 *12501:8 0.00165752
22 *3:5 *12523:8 0.0027721
23 *3:5 *12560:120 2.24828e-05
24 *3:5 *12564:16 0.000209512
25 *3:5 *12594:8 0.000126247
26 *3:5 *12606:8 1.07831e-05
27 *3:5 *12606:12 0.000415149
28 *3:5 *12607:32 0.00205759
29 *3:5 *12607:38 0.000966896
30 *3:5 *12734:38 1.7701e-05
31 *3:5 *12767:20 0.00028117
32 *3:5 *12767:24 0.000207725
33 *3:5 *12767:28 3.99874e-05
34 *3:5 *12767:32 0.000130572
35 *3:5 *12767:36 0.000186404
36 *3:5 *12767:38 0.000146435
37 *3:5 *13600:8 1.69754e-05
38 *3:5 *13600:12 0.000235306
39 *3:11 *54:11 0
40 *3:11 *97:11 0
41 *3:11 *13600:18 0.000762397
42 *3:15 *54:11 0
43 *3:15 *97:11 0
44 *3:15 *3285:8 0.000143554
45 *3:15 *3285:10 2.59207e-09
46 *3:15 *3285:18 0.000319306
47 *3:15 *3285:20 0.000425718
48 *3:15 *3285:22 0.00012893
49 *3:15 *3285:24 0.00016881
50 *3:15 *3286:6 1.84741e-05
51 *3:15 *3287:16 0
52 *3:15 *3287:18 0
53 *3:15 *3287:26 0.00016376
54 *3:15 *3287:28 9.18362e-06
55 *3:15 *3287:32 0.000224162
56 *3:15 *3289:6 0.0023234
57 *3:15 *3289:85 1.0516e-05
58 *3:15 *3291:36 0.000133046
59 *3:15 *3307:8 0.000139946
60 *3:15 *3310:24 0.000117042
61 *3:15 *3312:8 8.4009e-06
62 *3:15 *3313:6 1.84741e-05
63 *3:15 *3383:6 0
64 *3:15 *3426:6 1.84741e-05
65 *3:15 *14829:22 1.16817e-05
*RES
1 key[0] *3:5 465.615 
2 *3:5 *3:8 9.87723 
3 *3:8 *3:11 21.165 
4 *3:11 *3:13 0.488531 
5 *3:13 *3:15 199.569 
6 *3:15 *15918:B 13.7491 
*END

*D_NET *48 0.101495
*CONN
*P key[25] I
*I *18077:B2 I *D sky130_fd_sc_hs__a2bb2o_4
*CAP
1 key[25] 0.000207825
2 *18077:B2 3.09548e-05
3 *48:42 5.1059e-05
4 *48:40 0.000359111
5 *48:37 0.00243672
6 *48:35 0.00209771
7 *48:33 0.0173046
8 *48:31 0.01735
9 *48:29 0.0021437
10 *48:27 0.00212249
11 *48:25 6.54378e-05
12 *48:22 8.94086e-05
13 *48:19 0.00479158
14 *48:16 0.00479043
15 *48:13 6.94208e-05
16 *48:11 3.91361e-05
17 *48:9 3.69291e-05
18 *48:7 3.17075e-05
19 *48:5 0.000219385
20 *48:5 *88:5 0.000263468
21 *48:5 *173:5 0
22 *48:9 *88:5 5.50212e-05
23 *48:9 *173:5 0
24 *48:13 *88:5 1.08011e-05
25 *48:13 *173:5 0
26 *48:19 *88:5 0.000819353
27 *48:19 *88:9 0
28 *48:19 *173:5 0
29 *48:19 *173:9 0
30 *48:19 *544:12 5.76062e-05
31 *48:19 *544:18 0.00210618
32 *48:19 *9663:72 0.000170877
33 *48:19 *9684:67 0.00108366
34 *48:19 *9793:74 0.000110725
35 *48:19 *9793:81 1.49166e-05
36 *48:19 *9793:85 0.000185825
37 *48:19 *9803:92 0.000388704
38 *48:19 *9803:109 0.000518959
39 *48:19 *9823:40 3.74089e-05
40 *48:19 *9823:49 0.00085855
41 *48:19 *9890:8 0.000128406
42 *48:19 *9895:77 2.09932e-05
43 *48:19 *11417:20 0.000124916
44 *48:19 *11634:8 6.65318e-05
45 *48:22 *9663:61 0
46 *48:22 *9663:67 0
47 *48:25 *544:12 5.98769e-07
48 *48:25 *9675:66 5.03212e-06
49 *48:25 *9803:92 3.96513e-05
50 *48:27 *9803:94 4.40601e-06
51 *48:27 *9803:98 1.44327e-06
52 *48:29 *544:12 0.00347778
53 *48:29 *9802:97 0.000804667
54 *48:29 *9802:106 6.70128e-05
55 *48:29 *9803:92 1.55783e-06
56 *48:29 *9803:100 0.00196126
57 *48:29 *9829:97 5.15713e-05
58 *48:29 *10330:60 2.1592e-06
59 *48:29 *10397:14 1.51806e-05
60 *48:29 *10400:8 2.66343e-05
61 *48:29 *11018:12 1.74507e-05
62 *48:29 *11047:12 3.52861e-05
63 *48:33 *88:17 0
64 *48:33 *173:9 0
65 *48:33 *544:12 0.000189981
66 *48:33 *591:8 3.89899e-05
67 *48:33 *591:12 0.00107269
68 *48:33 *756:6 0.000409498
69 *48:33 *3189:82 0.000226248
70 *48:33 *3189:86 0.000398454
71 *48:33 *3189:128 0.00221919
72 *48:33 *7890:27 0
73 *48:33 *7890:34 0
74 *48:33 *7890:45 0
75 *48:33 *7893:10 1.7701e-05
76 *48:33 *7893:14 0.000256926
77 *48:33 *7897:100 4.99e-05
78 *48:33 *7904:8 0.00340585
79 *48:33 *7904:23 1.0516e-05
80 *48:33 *7990:58 0.000266235
81 *48:33 *7995:8 0.00728328
82 *48:33 *7997:109 0.000710567
83 *48:33 *8315:8 0.000332641
84 *48:33 *8373:36 0.000329912
85 *48:33 *8382:8 7.94867e-05
86 *48:33 *8386:34 2.30331e-05
87 *48:33 *8386:62 0.000332749
88 *48:33 *8388:8 0.00110075
89 *48:33 *8388:15 0.0016061
90 *48:33 *8388:24 0.00023893
91 *48:33 *8392:52 0.000483725
92 *48:33 *8392:102 0.000797012
93 *48:33 *8487:8 7.82498e-05
94 *48:33 *8487:85 0.00213622
95 *48:33 *9658:8 8.7542e-05
96 *48:33 *9665:32 0.00116404
97 *48:33 *9665:39 0.000853507
98 *48:33 *9665:43 0.000439322
99 *48:33 *9666:14 1.51806e-05
100 *48:33 *9666:18 3.73994e-05
101 *48:33 *9666:22 1.7701e-05
102 *48:33 *9666:31 0.000295278
103 *48:33 *9666:35 1.69029e-05
104 *48:33 *9703:88 0.000902194
105 *48:33 *9703:99 0.000344538
106 *48:33 *9703:110 0.000994847
107 *48:33 *9712:38 3.52861e-05
108 *48:33 *9754:37 0.00054428
109 *48:33 *9839:8 0.000134697
110 *48:33 *9839:17 0.000174893
111 *48:33 *10330:60 5.00221e-05
112 *48:33 *10406:8 0.0005022
113 *48:33 *15276:56 0
114 *48:33 *15276:129 7.7297e-05
115 *48:33 *15276:133 1.7701e-05
116 *48:37 *173:9 0
117 *48:37 *765:6 0.000211592
118 *48:37 *3189:82 9.21481e-05
119 *48:37 *3664:77 9.59066e-07
120 *48:37 *5897:12 3.95061e-05
121 *48:37 *6259:6 0.00013495
122 *48:37 *8386:62 0.000690271
123 *48:37 *8386:72 0.000698696
124 *48:37 *8942:20 1.55783e-06
125 *48:37 *8942:30 7.99029e-05
126 *48:37 *8942:34 0.000889869
127 *48:40 *8670:5 7.89288e-05
128 *48:42 *2989:94 4.44034e-06
*RES
1 key[25] *48:5 9.12332 
2 *48:5 *48:7 0.757223 
3 *48:7 *48:9 1.07477 
4 *48:9 *48:11 0.757223 
5 *48:11 *48:13 0.848823 
6 *48:13 *48:16 5.24751 
7 *48:16 *48:19 147.999 
8 *48:19 *48:22 5.56098 
9 *48:22 *48:25 5.34882 
10 *48:25 *48:27 -1.55109 
11 *48:27 *48:29 76.0213 
12 *48:29 *48:31 1.34346 
13 *48:31 *48:33 562.983 
14 *48:33 *48:35 -0.757223 
15 *48:35 *48:37 60.7214 
16 *48:37 *48:40 11.6134 
17 *48:40 *48:42 0.614885 
18 *48:42 *18077:B2 9.24915 
*END

*D_NET *92 0.0793639
*CONN
*P key[65] I
*I *18503:A2 I *D sky130_fd_sc_hs__o21a_4
*CAP
1 key[65] 0.00343241
2 *18503:A2 2.61072e-05
3 *92:20 8.40341e-05
4 *92:17 0.00209265
5 *92:15 0.00205784
6 *92:13 0.0012028
7 *92:11 0.00121182
8 *92:9 0.0123495
9 *92:7 0.0123173
10 *92:5 0.00343241
11 *92:5 *120:5 0
12 *92:5 *120:11 0.000145501
13 *92:5 *186:5 0.000594419
14 *92:5 *186:9 0
15 *92:5 *1285:71 0.000211331
16 *92:5 *1292:60 0
17 *92:5 *1292:71 0
18 *92:5 *1292:81 5.16081e-06
19 *92:5 *2708:6 0
20 *92:9 *120:11 0.0204471
21 *92:9 *1197:16 0
22 *92:9 *1197:18 0
23 *92:9 *1245:30 0
24 *92:9 *1246:73 1.34399e-05
25 *92:9 *1246:79 0.00253593
26 *92:9 *1278:108 4.41389e-05
27 *92:9 *1285:71 0
28 *92:9 *2120:18 4.13353e-06
29 *92:9 *2695:6 0.00565558
30 *92:9 *7053:122 2.09984e-05
31 *92:9 *7059:8 0.00110773
32 *92:9 *7059:23 0.000188458
33 *92:9 *7074:55 9.91946e-05
34 *92:9 *7074:72 2.24828e-05
35 *92:9 *7183:99 4.223e-05
36 *92:9 *7183:103 0.00238892
37 *92:9 *7183:115 4.41209e-05
38 *92:9 *7183:122 9.72637e-05
39 *92:13 *120:11 0.000309386
40 *92:13 *7183:115 0.00192741
41 *92:13 *7244:53 0.000560976
42 *92:13 *7244:64 1.03885e-05
43 *92:13 *7522:6 0.000148087
44 *92:17 *120:11 0.00331127
45 *92:17 *7030:90 1.40361e-05
46 *92:17 *7145:87 0.000983619
47 *92:17 *7183:115 0.000223732
48 *92:17 *7397:6 0
49 *92:17 *9060:8 0
*RES
1 key[65] *92:5 92.2689 
2 *92:5 *92:7 -1.61215 
3 *92:7 *92:9 437.596 
4 *92:9 *92:11 0.757223 
5 *92:11 *92:13 41.0635 
6 *92:13 *92:15 0.757223 
7 *92:15 *92:17 69.9861 
8 *92:17 *92:20 5.24751 
9 *92:20 *18503:A2 9.24915 
*END

*D_NET *193 0.105909
*CONN
*P text_in[39] I
*I *15436:B I *D sky130_fd_sc_hs__and2_4
*CAP
1 text_in[39] 0.000902353
2 *15436:B 3.80399e-05
3 *193:110 6.32965e-05
4 *193:107 0.00225722
5 *193:104 0.00227329
6 *193:101 0.00184903
7 *193:98 0.0018413
8 *193:95 4.39315e-05
9 *193:93 0.000105151
10 *193:91 0.000109326
11 *193:89 0.000423335
12 *193:86 0.000476566
13 *193:83 0.00266712
14 *193:81 0.0027014
15 *193:79 0.00211431
16 *193:77 0.00202189
17 *193:75 4.83566e-05
18 *193:73 4.32595e-05
19 *193:71 1.10733e-05
20 *193:69 6.55513e-06
21 *193:67 2.51291e-05
22 *193:65 3.91664e-05
23 *193:63 0.00256576
24 *193:60 0.00260628
25 *193:57 0.00511075
26 *193:54 0.00510872
27 *193:51 0.00136561
28 *193:49 0.00142317
29 *193:47 0.00199236
30 *193:44 0.00202177
31 *193:41 0.00229521
32 *193:39 0.00216532
33 *193:37 6.60591e-05
34 *193:35 7.10244e-05
35 *193:33 0.00312465
36 *193:30 0.00326655
37 *193:27 0.00126291
38 *193:25 0.00115476
39 *193:23 0.00140599
40 *193:20 0.00162523
41 *193:17 0.000625216
42 *193:14 0.000410254
43 *193:11 0.00156471
44 *193:8 0.00158435
45 *193:5 0.000974589
46 *193:8 *3678:130 5.55197e-05
47 *193:8 *4516:16 1.79719e-08
48 *193:11 *3727:51 1.36816e-05
49 *193:14 *3655:69 8.46032e-05
50 *193:14 *3727:48 7.29113e-05
51 *193:14 *4162:12 2.53403e-06
52 *193:17 *4162:9 0.000105173
53 *193:17 *4508:11 0.000170598
54 *193:23 *570:11 0.000699902
55 *193:23 *3633:58 0.000458628
56 *193:23 *4510:46 3.08392e-05
57 *193:27 *3619:35 0.000625429
58 *193:27 *3619:37 0.000169867
59 *193:27 *3633:58 0.000123936
60 *193:27 *3655:40 9.12439e-05
61 *193:27 *3655:42 6.06986e-06
62 *193:27 *4510:46 0.00119359
63 *193:30 *3747:62 0.000218484
64 *193:30 *4218:52 6.90479e-05
65 *193:33 *3563:43 0.00154559
66 *193:33 *3655:19 0.000141928
67 *193:33 *3655:40 0.000321326
68 *193:33 *3732:35 0
69 *193:33 *3771:130 0.000677148
70 *193:33 *4160:20 0.000787069
71 *193:33 *4160:24 0.00207794
72 *193:33 *4160:30 0.00230794
73 *193:37 *3563:43 0.000103189
74 *193:37 *4160:20 6.1561e-05
75 *193:41 *570:11 0
76 *193:41 *3563:43 3.95587e-05
77 *193:41 *3626:11 0.000312196
78 *193:41 *3626:13 0.00183845
79 *193:41 *3705:32 0
80 *193:41 *4160:20 0.000206989
81 *193:47 *570:11 0
82 *193:47 *14655:9 0
83 *193:47 *15224:17 0.000796831
84 *193:47 *15258:9 0.00212303
85 *193:47 *15258:73 0.000583527
86 *193:51 *6460:9 0
87 *193:51 *14655:9 0
88 *193:51 *15224:9 5.99928e-05
89 *193:51 *15224:13 3.48829e-05
90 *193:51 *15224:17 0.00284067
91 *193:54 *6518:12 6.40914e-05
92 *193:57 *6281:85 0.000905215
93 *193:57 *6301:80 7.09767e-05
94 *193:57 *6416:39 0.000473063
95 *193:57 *6499:69 0
96 *193:57 *6499:71 0
97 *193:57 *6718:5 0
98 *193:57 *6720:23 0
99 *193:57 *6724:5 0
100 *193:60 *6427:14 2.91144e-05
101 *193:60 *6450:8 0
102 *193:63 *6344:48 0.000282303
103 *193:63 *6403:11 0.000286603
104 *193:63 *6476:37 0.000560258
105 *193:63 *6485:111 8.98623e-05
106 *193:63 *6499:50 0
107 *193:63 *6667:11 0.00237703
108 *193:63 *6720:9 0.000111948
109 *193:63 *6720:13 0.00133133
110 *193:63 *6720:17 0.00015205
111 *193:67 *6344:48 4.43671e-05
112 *193:67 *6476:37 8.83608e-06
113 *193:71 *6476:37 1.23135e-05
114 *193:75 *6344:42 3.69947e-06
115 *193:75 *6344:48 7.99474e-06
116 *193:75 *6476:37 1.38853e-05
117 *193:79 *6344:42 0
118 *193:79 *6387:9 0.000460054
119 *193:79 *6476:37 0.000405423
120 *193:79 *15138:11 0.000182249
121 *193:79 *15138:15 0.000253874
122 *193:79 *15138:19 0.000249195
123 *193:83 *8850:51 0
124 *193:83 *8854:56 0
125 *193:83 *8951:15 0
126 *193:83 *15138:11 0.000167701
127 *193:86 *2720:36 2.66163e-05
128 *193:86 *7998:35 9.78722e-05
129 *193:89 *8850:51 0.000138409
130 *193:89 *8951:15 0
131 *193:93 *8850:51 3.38531e-05
132 *193:93 *8951:15 0
133 *193:98 *8138:19 4.09575e-05
134 *193:98 *13763:31 3.83331e-05
135 *193:101 *5602:5 7.58765e-05
136 *193:101 *8951:9 0.00311887
137 *193:104 *5244:23 4.08298e-05
138 *193:104 *6233:6 0
139 *193:107 *8849:9 0.00450872
140 *193:107 *8854:56 0.000778471
141 *193:107 *8950:13 0.000282891
142 *193:110 *6881:87 1.84741e-05
143 *193:110 *8996:59 1.84741e-05
144 *37:5 *193:5 0.000213928
145 *37:9 *193:5 0.000225011
146 *99:5 *193:5 0
147 *99:9 *193:5 0
148 *99:9 *193:23 0.00280324
149 *99:69 *193:79 0
150 *99:69 *193:83 0
151 *192:5 *193:5 0
152 *192:25 *193:41 0
153 *192:65 *193:63 0
154 *192:65 *193:83 0
*RES
1 text_in[39] *193:5 3.65657 
2 *193:5 *193:8 4.66889 
3 *193:8 *193:11 29.5535 
4 *193:11 *193:14 6.25261 
5 *193:14 *193:17 4.65582 
6 *193:17 *193:20 1.1734 
7 *193:20 *193:23 7.13089 
8 *193:23 *193:25 0.172935 
9 *193:25 *193:27 4.58435 
10 *193:27 *193:30 8.05807 
11 *193:30 *193:33 17.0817 
12 *193:33 *193:35 0.0806473 
13 *193:35 *193:37 0.319264 
14 *193:37 *193:39 0.0806473 
15 *193:39 *193:41 8.35045 
16 *193:41 *193:44 0.800232 
17 *193:44 *193:47 9.52545 
18 *193:47 *193:49 0.419034 
19 *193:49 *193:51 6.5548 
20 *193:51 *193:54 4.6695 
21 *193:54 *193:57 95.527 
22 *193:57 *193:60 5.80071 
23 *193:60 *193:63 15.8048 
24 *193:63 *193:65 0.0806473 
25 *193:65 *193:67 0.119724 
26 *193:67 *193:69 0.0403237 
27 *193:69 *193:71 0.0448965 
28 *193:71 *193:73 0.0403237 
29 *193:73 *193:75 0.154643 
30 *193:75 *193:77 0.0806473 
31 *193:77 *193:79 8.28589 
32 *193:79 *193:81 0.295984 
33 *193:81 *193:83 8.35066 
34 *193:83 *193:86 5.34673 
35 *193:86 *193:89 4.55106 
36 *193:89 *193:91 0.0806473 
37 *193:91 *193:93 0.304298 
38 *193:93 *193:95 0.0806473 
39 *193:95 *193:98 4.21761 
40 *193:98 *193:101 63.6977 
41 *193:101 *193:104 5.34882 
42 *193:104 *193:107 13.8744 
43 *193:107 *193:110 3.76572 
44 *193:110 *15436:B 13.7491 
*END

*D_NET *200 0.090243
*CONN
*P text_in[45] I
*I *15449:B I *D sky130_fd_sc_hs__and2_4
*CAP
1 text_in[45] 0.000898381
2 *15449:B 2.54091e-05
3 *200:20 6.21457e-05
4 *200:17 0.000313967
5 *200:15 0.000314858
6 *200:13 0.0097298
7 *200:11 0.00969217
8 *200:9 0.0136903
9 *200:7 0.0136938
10 *200:5 0.000901882
11 *200:5 *216:5 0
12 *200:9 *216:11 0.0198785
13 *200:9 *3269:18 0.000142211
14 *200:9 *3269:24 0
15 *200:9 *8900:35 0
16 *200:9 *9671:6 0
17 *200:9 *9671:12 0.000119782
18 *200:9 *9674:77 0
19 *200:9 *9694:63 0
20 *200:9 *9708:78 0.000557256
21 *200:9 *9708:89 0.000769303
22 *200:9 *9708:93 5.48681e-05
23 *200:9 *9721:45 0.000306097
24 *200:9 *9744:12 8.25056e-05
25 *200:9 *9744:58 7.67772e-06
26 *200:9 *9904:6 0
27 *200:9 *11044:18 0.00125484
28 *200:9 *11411:21 0
29 *200:9 *11633:8 0
30 *200:9 *11635:12 0.00318208
31 *200:13 *501:8 0.000195167
32 *200:13 *535:10 9.56137e-05
33 *200:13 *535:14 0
34 *200:13 *6243:12 1.84741e-05
35 *200:13 *6632:89 6.75261e-05
36 *200:13 *6632:105 9.16565e-06
37 *200:13 *7223:47 0
38 *200:13 *8142:86 0
39 *200:13 *8900:8 0.000604379
40 *200:13 *8900:16 0.000741729
41 *200:13 *8900:18 0.000202522
42 *200:13 *8900:35 0.0104239
43 *200:13 *9035:8 0.000369463
44 *200:13 *11562:28 0.000264686
45 *200:13 *14982:8 8.90865e-05
46 *200:13 *15284:14 0.00141858
47 *200:17 *535:14 0
48 *200:17 *6632:89 6.49323e-05
49 *154:5 *200:5 0
*RES
1 text_in[45] *200:5 27.199 
2 *200:5 *200:7 0 
3 *200:7 *200:9 466.671 
4 *200:9 *200:11 0 
5 *200:11 *200:13 305.811 
6 *200:13 *200:15 0.757223 
7 *200:15 *200:17 6.72341 
8 *200:17 *200:20 4.95815 
9 *200:20 *15449:B 9.24915 
*END

*D_NET *243 0.0720875
*CONN
*P text_in[84] I
*I *15535:B I *D sky130_fd_sc_hs__and2_4
*CAP
1 text_in[84] 0.000659713
2 *15535:B 3.80399e-05
3 *243:11 0.0196951
4 *243:8 0.0197926
5 *243:5 0.000795246
6 *243:5 text_out[91] 0.000474709
7 *243:5 *379:8 0
8 *243:11 *252:11 0
9 *243:11 *379:8 0
10 *243:11 *647:8 0.0131267
11 *243:11 *10018:56 0.00112099
12 *243:11 *10099:116 0.000241645
13 *243:11 *10099:125 0.000106547
14 *243:11 *10102:77 0.00112418
15 *243:11 *10149:49 0.00185798
16 *243:11 *10160:47 4.13353e-06
17 *243:11 *10160:51 0.00184126
18 *243:11 *10170:8 0.000130471
19 *243:11 *10170:20 0
20 *243:11 *10172:22 0.000173051
21 *243:11 *10761:8 0.00353548
22 *243:11 *10779:8 1.33172e-05
23 *243:11 *11212:17 0
24 *243:11 *11932:8 0.000359491
25 *243:11 *11961:86 0.0002338
26 *243:11 *11961:93 0.00011079
27 *243:11 *11974:22 0.000158472
28 *243:11 *11974:24 0.00201953
29 *243:11 *12001:56 0.000519189
30 *243:11 *12001:88 1.84741e-05
31 *243:11 *12039:58 1.72762e-05
32 *243:11 *12090:20 0.0006832
33 *243:11 *12090:29 6.24163e-05
34 *243:11 *12137:47 1.92072e-05
35 *243:11 *13218:14 3.84404e-06
36 *243:11 *13223:8 9.18362e-06
37 *243:11 *13324:36 1.32196e-06
38 *243:11 *13856:6 0.000326274
39 *243:11 *13858:6 0.000762329
40 *243:11 *13957:6 2.03203e-05
41 *243:11 *14154:6 0.00203127
*RES
1 text_in[84] *243:5 22.4541 
2 *243:5 *243:8 7.56237 
3 *243:8 *243:11 594.047 
4 *243:11 *15535:B 13.7491 
*END

*D_NET *400 0.000868886
*CONN
*I *30062:D I *D sky130_fd_sc_hs__dfxtp_4
*I *15578:X O *D sky130_fd_sc_hs__a21o_4
*CAP
1 *30062:D 2.80246e-05
2 *15578:X 0.000185723
3 *400:9 0.000147902
4 *400:6 0.0003056
5 *400:6 *5472:42 1.33351e-05
6 *400:6 *15300:29 1.92332e-06
7 *400:9 *15300:32 4.31697e-05
8 *400:9 *15300:38 0.000143208
*RES
1 *15578:X *400:6 17.0825 
2 *400:6 *400:9 7.56237 
3 *400:9 *30062:D 9.24915 
*END

*D_NET *521 0.00126946
*CONN
*I *30057:D I *D sky130_fd_sc_hs__dfxtp_4
*I *15567:X O *D sky130_fd_sc_hs__a21o_4
*CAP
1 *30057:D 1.14049e-05
2 *15567:X 3.95065e-05
3 *521:11 8.33884e-05
4 *521:8 0.000491083
5 *521:5 0.000458606
6 *521:5 *5472:21 1.73176e-05
7 *521:8 *4601:8 0
8 *521:8 *4601:12 0
9 *521:8 *5472:18 5.32686e-05
10 *521:8 *10165:28 0
11 *521:11 *15292:93 0.000114881
*RES
1 *15567:X *521:5 9.99665 
2 *521:5 *521:8 13.2557 
3 *521:8 *521:11 6.40494 
4 *521:11 *30057:D 9.24915 
*END

*D_NET *671 0.000605435
*CONN
*I *29665:D I *D sky130_fd_sc_hs__dfxtp_4
*I *18650:Y O *D sky130_fd_sc_hs__o21ai_4
*CAP
1 *29665:D 3.73459e-05
2 *18650:Y 4.12751e-05
3 *671:8 0.000239852
4 *671:5 0.000243781
5 *29665:D *29629:D 0
6 *671:5 *9138:95 4.31697e-05
7 *671:8 *8997:51 5.18414e-09
8 *671:8 *15281:16 5.18414e-09
*RES
1 *18650:Y *671:5 9.99665 
2 *671:5 *671:8 8.28551 
3 *671:8 *29665:D 13.7491 
*END
