*SPEF "ieee 1481-1999"
*DESIGN "blk"
*DATE "11:11:11 Fri 11 11, 1111"
*VENDOR "OpenRCX"
*PROGRAM "Parallel Extraction"
*VERSION "1.0"
*DESIGN_FLOW "NAME_SCOPE LOCAL" "PIN_CAP NONE"
*DIVIDER /
*DELIMITER :
*BUS_DELIMITER []
*T_UNIT 1 NS
*C_UNIT 1 PF
*R_UNIT 1 OHM
*L_UNIT 1 HENRY

*NAME_MAP
*3 O6_M1oM0_W170W170_S170S170_3
*48 O6_M1oM0_W170W170_S1360S1360_3
*92 O6_M2oM0_W140W140_S700S700_1
*193 O6_M2oM1_W140W140_S280S280_cntxM1_27
*200 O6_M2oM1_W140W140_S280S280_cntxM1_34
*243 O6_M2oM1_W140W140_S350S350_cntxM1_28
*400 O6_M2oM1_W140W140_S560S560_cntxM1_38
*521 O6_M2oM1_W140W140_S840S840_cntxM1_12
*671 O6_M2oM1_W140W140_S0S0_cntxM1_19

*PORTS
O6_M1oM0_W170W170_S170S170_2 O
O6_M1oM0_W170W170_S170S170_3_BL I
O6_M1oM0_W170W170_S170S170_3 O
O6_M1oM0_W170W170_S170S170_4 O
O6_M1oM0_W170W170_S1360S1360_2 O
O6_M1oM0_W170W170_S1360S1360_3_BL I
O6_M1oM0_W170W170_S1360S1360_3 O
O6_M1oM0_W170W170_S1360S1360_4 O
O6_M2oM0_W140W140_S700S700_1_BL I
O6_M2oM0_W140W140_S700S700_1 O
O6_M2oM0_W140W140_S700S700_2 O
O6_M2oM1_W140W140_S280S280_cntxM1_26 O
O6_M2oM1_W140W140_S280S280_cntxM1_27_BL I
O6_M2oM1_W140W140_S280S280_cntxM1_27 O
O6_M2oM1_W140W140_S280S280_cntxM1_28 O
O6_M2oM1_W140W140_S280S280_cntxM1_33 O
O6_M2oM1_W140W140_S280S280_cntxM1_34_BL I
O6_M2oM1_W140W140_S280S280_cntxM1_34 O
O6_M2oM1_W140W140_S280S280_cntxM1_35 O
O6_M2oM1_W140W140_S350S350_cntxM1_27 O
O6_M2oM1_W140W140_S350S350_cntxM1_28_BL I
O6_M2oM1_W140W140_S350S350_cntxM1_28 O
O6_M2oM1_W140W140_S350S350_cntxM1_29 O
O6_M2oM1_W140W140_S560S560_cntxM1_37 O
O6_M2oM1_W140W140_S560S560_cntxM1_38_BL I
O6_M2oM1_W140W140_S560S560_cntxM1_38 O
O6_M2oM1_W140W140_S560S560_cntxM1_39 O
O6_M2oM1_W140W140_S840S840_cntxM1_11 O
O6_M2oM1_W140W140_S840S840_cntxM1_12_BL I
O6_M2oM1_W140W140_S840S840_cntxM1_12 O
O6_M2oM1_W140W140_S840S840_cntxM1_13 O
O6_M2oM1_W140W140_S0S0_cntxM1_18 O
O6_M2oM1_W140W140_S0S0_cntxM1_19_BL I
O6_M2oM1_W140W140_S0S0_cntxM1_19 O
O6_M2oM1_W140W140_S0S0_cntxM1_20 O

*D_NET *3 0.00321745
*CONN
*P O6_M1oM0_W170W170_S170S170_3 O
*P O6_M1oM0_W170W170_S170S170_3_BL I
*CAP
1 O6_M1oM0_W170W170_S170S170_3 0.000294614
2 O6_M1oM0_W170W170_S170S170_3_BL 0.000294614
3 O6_M1oM0_W170W170_S170S170_3 O6_M1oM0_W170W170_S170S170_4 0.00131411
4 O6_M1oM0_W170W170_S170S170_2 O6_M1oM0_W170W170_S170S170_3 0.00131411
*RES
1 O6_M1oM0_W170W170_S170S170_3_BL O6_M1oM0_W170W170_S170S170_3 1147.31 
*END

*D_NET *48 0.00139969
*CONN
*P O6_M1oM0_W170W170_S1360S1360_3 O
*P O6_M1oM0_W170W170_S1360S1360_3_BL I
*CAP
1 O6_M1oM0_W170W170_S1360S1360_3 0.000699845
2 O6_M1oM0_W170W170_S1360S1360_3_BL 0.000699845
3 O6_M1oM0_W170W170_S1360S1360_3 O6_M1oM0_W170W170_S1360S1360_4 0
4 O6_M1oM0_W170W170_S1360S1360_2 O6_M1oM0_W170W170_S1360S1360_3 0
*RES
1 O6_M1oM0_W170W170_S1360S1360_3_BL O6_M1oM0_W170W170_S1360S1360_3 1147.31 
*END

*D_NET *92 0.00183165
*CONN
*P O6_M2oM0_W140W140_S700S700_1 O
*P O6_M2oM0_W140W140_S700S700_1_BL I
*CAP
1 O6_M2oM0_W140W140_S700S700_1 0.000398165
2 O6_M2oM0_W140W140_S700S700_1_BL 0.000398165
3 O6_M2oM0_W140W140_S700S700_1 O6_M2oM0_W140W140_S700S700_2 0.00103533
*RES
1 O6_M2oM0_W140W140_S700S700_1_BL O6_M2oM0_W140W140_S700S700_1 16.7104 
*END

*D_NET *193 0.000536004
*CONN
*P O6_M2oM1_W140W140_S280S280_cntxM1_27 O
*P O6_M2oM1_W140W140_S280S280_cntxM1_27_BL I
*CAP
1 O6_M2oM1_W140W140_S280S280_cntxM1_27 8.3981e-05
2 O6_M2oM1_W140W140_S280S280_cntxM1_27_BL 8.3981e-05
3 O6_M2oM1_W140W140_S280S280_cntxM1_27 O6_M2oM1_W140W140_S280S280_cntxM1_28 0.000184021
4 O6_M2oM1_W140W140_S280S280_cntxM1_26 O6_M2oM1_W140W140_S280S280_cntxM1_27 0.000184021
*RES
1 O6_M2oM1_W140W140_S280S280_cntxM1_27_BL O6_M2oM1_W140W140_S280S280_cntxM1_27 183.379 
*END

*D_NET *200 0.000536004
*CONN
*P O6_M2oM1_W140W140_S280S280_cntxM1_34 O
*P O6_M2oM1_W140W140_S280S280_cntxM1_34_BL I
*CAP
1 O6_M2oM1_W140W140_S280S280_cntxM1_34 8.3981e-05
2 O6_M2oM1_W140W140_S280S280_cntxM1_34_BL 8.3981e-05
3 O6_M2oM1_W140W140_S280S280_cntxM1_34 O6_M2oM1_W140W140_S280S280_cntxM1_35 0.000184021
4 O6_M2oM1_W140W140_S280S280_cntxM1_33 O6_M2oM1_W140W140_S280S280_cntxM1_34 0.000184021
*RES
1 O6_M2oM1_W140W140_S280S280_cntxM1_34_BL O6_M2oM1_W140W140_S280S280_cntxM1_34 183.379 
*END

*D_NET *243 0.000567118
*CONN
*P O6_M2oM1_W140W140_S350S350_cntxM1_28 O
*P O6_M2oM1_W140W140_S350S350_cntxM1_28_BL I
*CAP
1 O6_M2oM1_W140W140_S350S350_cntxM1_28 9.38121e-05
2 O6_M2oM1_W140W140_S350S350_cntxM1_28_BL 9.38121e-05
3 O6_M2oM1_W140W140_S350S350_cntxM1_28 O6_M2oM1_W140W140_S350S350_cntxM1_29 0.000189747
4 O6_M2oM1_W140W140_S350S350_cntxM1_27 O6_M2oM1_W140W140_S350S350_cntxM1_28 0.000189747
*RES
1 O6_M2oM1_W140W140_S350S350_cntxM1_28_BL O6_M2oM1_W140W140_S350S350_cntxM1_28 192.923 
*END

*D_NET *400 0.000643049
*CONN
*P O6_M2oM1_W140W140_S560S560_cntxM1_38 O
*P O6_M2oM1_W140W140_S560S560_cntxM1_38_BL I
*CAP
1 O6_M2oM1_W140W140_S560S560_cntxM1_38 9.37641e-05
2 O6_M2oM1_W140W140_S560S560_cntxM1_38_BL 9.37641e-05
3 O6_M2oM1_W140W140_S560S560_cntxM1_38 O6_M2oM1_W140W140_S560S560_cntxM1_39 0.00022776
4 O6_M2oM1_W140W140_S560S560_cntxM1_37 O6_M2oM1_W140W140_S560S560_cntxM1_38 0.00022776
*RES
1 O6_M2oM1_W140W140_S560S560_cntxM1_38_BL O6_M2oM1_W140W140_S560S560_cntxM1_38 221.554 
*END

*D_NET *521 0.000754457
*CONN
*P O6_M2oM1_W140W140_S840S840_cntxM1_12 O
*P O6_M2oM1_W140W140_S840S840_cntxM1_12_BL I
*CAP
1 O6_M2oM1_W140W140_S840S840_cntxM1_12 0.000110947
2 O6_M2oM1_W140W140_S840S840_cntxM1_12_BL 0.000110947
3 O6_M2oM1_W140W140_S840S840_cntxM1_12 O6_M2oM1_W140W140_S840S840_cntxM1_13 0.000266281
4 O6_M2oM1_W140W140_S840S840_cntxM1_11 O6_M2oM1_W140W140_S840S840_cntxM1_12 0.000266281
*RES
1 O6_M2oM1_W140W140_S840S840_cntxM1_12_BL O6_M2oM1_W140W140_S840S840_cntxM1_12 259.73 
*END

*D_NET *671 0.000216547
*CONN
*P O6_M2oM1_W140W140_S0S0_cntxM1_19 O
*P O6_M2oM1_W140W140_S0S0_cntxM1_19_BL I
*CAP
1 O6_M2oM1_W140W140_S0S0_cntxM1_19 2.68013e-05
2 O6_M2oM1_W140W140_S0S0_cntxM1_19_BL 2.68013e-05
3 O6_M2oM1_W140W140_S0S0_cntxM1_19 O6_M2oM1_W140W140_S0S0_cntxM1_20 8.14723e-05
4 O6_M2oM1_W140W140_S0S0_cntxM1_18 O6_M2oM1_W140W140_S0S0_cntxM1_19 8.14723e-05
*RES
1 O6_M2oM1_W140W140_S0S0_cntxM1_19_BL O6_M2oM1_W140W140_S0S0_cntxM1_19 75.6694 
*END
